pcf
* control data
             restart      regularization
        33       833        11        32        16         0
         2         1              single               point         1         0         0          noobsreref
   5.000000E+00   2.000000E+00   3.000000E-01   3.000000E-02        10       999          lamforgive        noderforgive
   1.100000E+00   1.100000E+00   1.000000E-03         0         0
   1.000000E-01         1   1.100000E+00               noaui          nosenreuse        noboundscale
         0   1.000000E-03         8         8   1.000000E-03         3   0.000000E+00         1  -1.000000E+00
         1         1         1         0             jcosave          verboserec          jcosaveitn          reisaveitn          parsaveitn        noparsaverun
* singular value decomposition
         1 
        42           1E-05 
         1 
* parameter groups
 median_gra              relative              1.0000000000E-02       0  switch                2.0000000000E+00       parabolic             1.0000000000E-05      5.0000000000E-01       smaller              
 fall_time_              relative              1.0000000000E-02       0  switch                2.0000000000E+00       parabolic             1.0000000000E-05      5.0000000000E-01       smaller              
 plume_heig              relative              1.0000000000E-02       0  switch                2.0000000000E+00       parabolic             1.0000000000E-05      5.0000000000E-01       smaller              
 beta                    relative              1.0000000000E-02       0  switch                2.0000000000E+00       parabolic             1.0000000000E-05      5.0000000000E-01       smaller              
 diffusion_              relative              1.0000000000E-02       0  switch                2.0000000000E+00       parabolic             1.0000000000E-05      5.0000000000E-01       smaller              
 wd_a                    relative              1.0000000000E-02       0  switch                2.0000000000E+00       parabolic             1.0000000000E-05      5.0000000000E-01       smaller              
 ws_a                    relative              1.0000000000E-02       0  switch                2.0000000000E+00       parabolic             1.0000000000E-05      5.0000000000E-01       smaller              
 std_grains              relative              1.0000000000E-02       0  switch                2.0000000000E+00       parabolic             1.0000000000E-05      5.0000000000E-01       smaller              
 alpha                   relative              1.0000000000E-02       0  switch                2.0000000000E+00       parabolic             1.0000000000E-05      5.0000000000E-01       smaller              
 eddy_const              relative              1.0000000000E-02       0  switch                2.0000000000E+00       parabolic             1.0000000000E-05      5.0000000000E-01       smaller              
 eruption_m              relative              1.0000000000E-02       0  switch                2.0000000000E+00       parabolic             1.0000000000E-05      5.0000000000E-01       smaller              
* parameter data
 pumdena                log                    factor                8.7547660000E+02      8.0000000000E+02      1.2000000000E+03       beta                  1.0000000000E+00      0.0000000000E+00      1          
 lithdena               log                    factor                2.4000000000E+03      2.4000000000E+03      2.8000000000E+03       beta                  1.0000000000E+00      0.0000000000E+00      1          
 median_ga              none                   relative              -2.2551680000E-01     -1.0000000000E+00     1.0000000000E+00       median_gra            1.0000000000E+00      0.0000000000E+00      1          
 fall_tima              log                    factor                1.0227155000E+02      1.0000000000E-01      1.0000000000E+03       fall_time_            1.0000000000E+00      0.0000000000E+00      1          
 plume_hea              log                    factor                8.0700750000E+03      6.0000000000E+03      1.0000000000E+04       plume_heig            1.0000000000E+00      0.0000000000E+00      1          
 betaa                  fixed                  factor                1.0000000000E+00      1.0000000000E-02      1.0000000000E+01       beta                  1.0000000000E+00      0.0000000000E+00      1          
 diffusioa              log                    factor                6.4112186000E+02      1.0000000000E+00      3.0000000000E+03       diffusion_            1.0000000000E+00      0.0000000000E+00      1          
 wd_a_00                log                    factor                4.9000000000E+02      3.6000000000E+02      6.3000000000E+02       wd_a                  1.0000000000E+00      0.0000000000E+00      1          
 wd_a_01                log                    factor                3.6000000000E+02      3.6000000000E+02      6.3000000000E+02       wd_a                  1.0000000000E+00      0.0000000000E+00      1          
 wd_a_02                log                    factor                4.8793769000E+02      3.6000000000E+02      6.3000000000E+02       wd_a                  1.0000000000E+00      0.0000000000E+00      1          
 wd_a_03                log                    factor                4.9561080000E+02      3.6000000000E+02      6.3000000000E+02       wd_a                  1.0000000000E+00      0.0000000000E+00      1          
 wd_a_04                log                    factor                4.9662143000E+02      3.6000000000E+02      6.3000000000E+02       wd_a                  1.0000000000E+00      0.0000000000E+00      1          
 wd_a_05                log                    factor                4.9116338000E+02      3.6000000000E+02      6.3000000000E+02       wd_a                  1.0000000000E+00      0.0000000000E+00      1          
 wd_a_06                log                    factor                4.8723940000E+02      3.6000000000E+02      6.3000000000E+02       wd_a                  1.0000000000E+00      0.0000000000E+00      1          
 wd_a_07                log                    factor                4.8862909000E+02      3.6000000000E+02      6.3000000000E+02       wd_a                  1.0000000000E+00      0.0000000000E+00      1          
 wd_a_08                log                    factor                4.8863659000E+02      3.6000000000E+02      6.3000000000E+02       wd_a                  1.0000000000E+00      0.0000000000E+00      1          
 wd_a_09                log                    factor                3.6000000000E+02      3.6000000000E+02      6.3000000000E+02       wd_a                  1.0000000000E+00      0.0000000000E+00      1          
 wd_a_10                log                    factor                4.9000000000E+02      3.6000000000E+02      6.3000000000E+02       wd_a                  1.0000000000E+00      0.0000000000E+00      1          
 ws_a_00                log                    factor                5.0000000000E+00      1.0000000000E+00      6.0000000000E+01       ws_a                  1.0000000000E+00      0.0000000000E+00      1          
 ws_a_01                log                    factor                1.0000000000E+00      1.0000000000E+00      6.0000000000E+01       ws_a                  1.0000000000E+00      0.0000000000E+00      1          
 ws_a_02                log                    factor                3.6092399000E+00      1.0000000000E+00      8.0000000000E+01       ws_a                  1.0000000000E+00      0.0000000000E+00      1          
 ws_a_03                log                    factor                1.2528669000E+01      1.0000000000E+00      1.2000000000E+02       ws_a                  1.0000000000E+00      0.0000000000E+00      1          
 ws_a_04                log                    factor                2.2908467000E+01      1.0000000000E+00      1.2000000000E+02       ws_a                  1.0000000000E+00      0.0000000000E+00      1          
 ws_a_05                log                    factor                3.8040820000E+01      1.0000000000E+00      1.2000000000E+02       ws_a                  1.0000000000E+00      0.0000000000E+00      1          
 ws_a_06                log                    factor                4.5020274000E+01      1.0000000000E+00      1.2000000000E+02       ws_a                  1.0000000000E+00      0.0000000000E+00      1          
 ws_a_07                log                    factor                5.4542490000E+01      1.0000000000E+00      1.2000000000E+02       ws_a                  1.0000000000E+00      0.0000000000E+00      1          
 ws_a_08                log                    factor                6.4970622000E+01      1.0000000000E+00      1.2000000000E+02       ws_a                  1.0000000000E+00      0.0000000000E+00      1          
 ws_a_09                log                    factor                1.0890705000E+02      1.0000000000E+00      1.2000000000E+02       ws_a                  1.0000000000E+00      0.0000000000E+00      1          
 ws_a_10                log                    factor                8.0000000000E+01      1.0000000000E+00      1.2000000000E+02       ws_a                  1.0000000000E+00      0.0000000000E+00      1          
 std_graia              log                    factor                2.1112605000E+00      1.0000000000E+00      3.0000000000E+00       std_grains            1.0000000000E+00      0.0000000000E+00      1          
 alphaa                 log                    factor                1.6504778000E-02      1.0000000000E-02      1.0000000000E+01       alpha                 1.0000000000E+00      0.0000000000E+00      1          
 eddy_cona              log                    factor                4.0270770000E-02      1.0000000000E-03      9.0000000000E-02       eddy_const            1.0000000000E+00      0.0000000000E+00      1          
 eruptiona              log                    factor                3.4176943000E+10      1.0000000000E+07      1.0000000000E+11       eruption_m            1.0000000000E+00      0.0000000000E+00      1          
* observation groups
imas_2               
gs_n6                
gs_n7                
gs_n4                
gs_n5                
gs_n2                
gs_n3                
gs_n1                
gs_3                 
gs_2                 
gs_1                 
gs_0                 
gs_5                 
gs_4                 
imas                 
regul                
* observation data
 ks019_00              0.0000000000E+00      0.0000000000E+00       gs_0                 
 ks011_00              2.0000000000E-04      0.0000000000E+00       gs_0                 
 ks017_00              9.0000000000E-04      0.0000000000E+00       gs_0                 
 ks014_00              1.3000000000E-03      0.0000000000E+00       gs_0                 
 ks016_00              1.5000000000E-03      0.0000000000E+00       gs_0                 
 ks020_00              1.5000000000E-03      0.0000000000E+00       gs_0                 
 ks030_00              1.8000000000E-03      0.0000000000E+00       gs_0                 
 ks012_00              2.0000000000E-03      0.0000000000E+00       gs_0                 
 ks022_00              2.2000000000E-03      0.0000000000E+00       gs_0                 
 ks015_00              2.5000000000E-03      0.0000000000E+00       gs_0                 
 ks018_00              3.5000000000E-03      0.0000000000E+00       gs_0                 
 ks021_00              4.1000000000E-03      0.0000000000E+00       gs_0                 
 ks024_00              4.2000000000E-03      0.0000000000E+00       gs_0                 
 mb106_00              9.2000000000E-03      0.0000000000E+00       gs_0                 
 ks023_00              1.2800000000E-02      0.0000000000E+00       gs_0                 
 ks033_00              1.4100000000E-02      0.0000000000E+00       gs_0                 
 ks025_00              7.1500000000E-02      0.0000000000E+00       gs_0                 
 mb122_00              9.4500000000E-02      0.0000000000E+00       gs_0                 
 ks044_00              1.3140000000E-01      0.0000000000E+00       gs_0                 
 ks058_00              2.4020000000E-01      0.0000000000E+00       gs_0                 
 ks034_00              2.8960000000E-01      0.0000000000E+00       gs_0                 
 mb121_00              5.0860000000E-01      0.0000000000E+00       gs_0                 
 ks041_00              7.4700000000E-01      0.0000000000E+00       gs_0                 
 mb116_00              7.5790000000E-01      0.0000000000E+00       gs_0                 
 ks035_00              1.0628000000E+00      0.0000000000E+00       gs_0                 
 ks028_00              1.2704000000E+00      0.0000000000E+00       gs_0                 
 ks039_00              1.4918000000E+00      0.0000000000E+00       gs_0                 
 ks026_00              1.5344000000E+00      0.0000000000E+00       gs_0                 
 ks027_00              1.8824000000E+00      0.0000000000E+00       gs_0                 
 ks001_00              2.3681000000E+00      0.0000000000E+00       gs_0                 
 ks042_00              2.6792000000E+00      0.0000000000E+00       gs_0                 
 ks036_00              3.3650000000E+00      0.0000000000E+00       gs_0                 
 ks051_00              3.5348000000E+00      0.0000000000E+00       gs_0                 
 ks002_00              4.0320000000E+00      0.0000000000E+00       gs_0                 
 ks045_00              4.0418000000E+00      0.0000000000E+00       gs_0                 
 ks037_00              4.9090000000E+00      0.0000000000E+00       gs_0                 
 mb039_00              6.2094000000E+00      0.0000000000E+00       gs_0                 
 mb006_00              6.7402000000E+00      0.0000000000E+00       gs_0                 
 mb024_00              6.9380000000E+00      0.0000000000E+00       gs_0                 
 ks003_00              7.7259000000E+00      0.0000000000E+00       gs_0                 
 ks004_00              8.0832000000E+00      0.0000000000E+00       gs_0                 
 mb016_00              8.3800000000E+00      0.0000000000E+00       gs_0                 
 mb040_00              9.2298000000E+00      0.0000000000E+00       gs_0                 
 ks049_00              9.9075000000E+00      0.0000000000E+00       gs_0                 
 mb022_00              9.9167000000E+00      0.0000000000E+00       gs_0                 
 mb023_00              1.0058300000E+01      0.0000000000E+00       gs_0                 
 mb009_00              1.1516900000E+01      0.0000000000E+00       gs_0                 
 ks046_00              1.1792900000E+01      0.0000000000E+00       gs_0                 
 mb008_00              1.6543300000E+01      0.0000000000E+00       gs_0                 
 mb001_00              1.7432400000E+01      0.0000000000E+00       gs_0                 
 ks040_00              1.9080200000E+01      0.0000000000E+00       gs_0                 
 mb007_00              1.9603900000E+01      0.0000000000E+00       gs_0                 
 mb027_00              2.4251500000E+01      0.0000000000E+00       gs_0                 
 ks062_00              5.2423100000E+01      0.0000000000E+00       gs_0                 
 mb004_00              7.0073500000E+01      0.0000000000E+00       gs_0                 
 ks015_01              1.0000000000E-03      0.0000000000E+00       gs_1                 
 ks014_01              1.7000000000E-03      0.0000000000E+00       gs_1                 
 ks019_01              1.7000000000E-03      0.0000000000E+00       gs_1                 
 ks020_01              3.0000000000E-03      0.0000000000E+00       gs_1                 
 ks012_01              3.3000000000E-03      0.0000000000E+00       gs_1                 
 ks018_01              1.7100000000E-02      0.0000000000E+00       gs_1                 
 ks017_01              3.0900000000E-02      0.0000000000E+00       gs_1                 
 ks011_01              3.5300000000E-02      0.0000000000E+00       gs_1                 
 ks021_01              3.6200000000E-02      0.0000000000E+00       gs_1                 
 ks044_01              5.7300000000E-02      0.0000000000E+00       gs_1                 
 ks030_01              6.1200000000E-02      0.0000000000E+00       gs_1                 
 ks016_01              7.4500000000E-02      0.0000000000E+00       gs_1                 
 ks022_01              2.2420000000E-01      0.0000000000E+00       gs_1                 
 ks033_01              2.7260000000E-01      0.0000000000E+00       gs_1                 
 ks042_01              2.8030000000E-01      0.0000000000E+00       gs_1                 
 ks041_01              2.8830000000E-01      0.0000000000E+00       gs_1                 
 ks023_01              4.6070000000E-01      0.0000000000E+00       gs_1                 
 mb106_01              6.4310000000E-01      0.0000000000E+00       gs_1                 
 ks024_01              7.4320000000E-01      0.0000000000E+00       gs_1                 
 ks004_01              1.0741000000E+00      0.0000000000E+00       gs_1                 
 ks034_01              1.3185000000E+00      0.0000000000E+00       gs_1                 
 ks035_01              1.4017000000E+00      0.0000000000E+00       gs_1                 
 ks045_01              1.6121000000E+00      0.0000000000E+00       gs_1                 
 ks028_01              1.6192000000E+00      0.0000000000E+00       gs_1                 
 ks039_01              1.6215000000E+00      0.0000000000E+00       gs_1                 
 mb122_01              1.6567000000E+00      0.0000000000E+00       gs_1                 
 mb008_01              2.0460000000E+00      0.0000000000E+00       gs_1                 
 ks025_01              2.3034000000E+00      0.0000000000E+00       gs_1                 
 mb016_01              2.3721000000E+00      0.0000000000E+00       gs_1                 
 mb006_01              3.0692000000E+00      0.0000000000E+00       gs_1                 
 mb023_01              3.2860000000E+00      0.0000000000E+00       gs_1                 
 ks026_01              3.2891000000E+00      0.0000000000E+00       gs_1                 
 ks058_01              3.4057000000E+00      0.0000000000E+00       gs_1                 
 mb024_01              3.4968000000E+00      0.0000000000E+00       gs_1                 
 mb009_01              3.5393000000E+00      0.0000000000E+00       gs_1                 
 mb121_01              4.3597000000E+00      0.0000000000E+00       gs_1                 
 mb116_01              4.3684000000E+00      0.0000000000E+00       gs_1                 
 ks051_01              4.5691000000E+00      0.0000000000E+00       gs_1                 
 ks037_01              5.0945000000E+00      0.0000000000E+00       gs_1                 
 ks036_01              5.2124000000E+00      0.0000000000E+00       gs_1                 
 mb022_01              6.3933000000E+00      0.0000000000E+00       gs_1                 
 ks027_01              6.5575000000E+00      0.0000000000E+00       gs_1                 
 mb027_01              7.0060000000E+00      0.0000000000E+00       gs_1                 
 ks001_01              7.2509000000E+00      0.0000000000E+00       gs_1                 
 mb039_01              7.8587000000E+00      0.0000000000E+00       gs_1                 
 mb040_01              8.1199000000E+00      0.0000000000E+00       gs_1                 
 ks046_01              8.3428000000E+00      0.0000000000E+00       gs_1                 
 mb001_01              8.9189000000E+00      0.0000000000E+00       gs_1                 
 ks003_01              9.1365000000E+00      0.0000000000E+00       gs_1                 
 ks002_01              9.4391000000E+00      0.0000000000E+00       gs_1                 
 mb007_01              9.5368000000E+00      0.0000000000E+00       gs_1                 
 ks049_01              1.2132000000E+01      0.0000000000E+00       gs_1                 
 mb004_01              1.6583800000E+01      0.0000000000E+00       gs_1                 
 ks040_01              2.3202500000E+01      0.0000000000E+00       gs_1                 
 ks062_01              2.3896300000E+01      0.0000000000E+00       gs_1                 
 ks014_02              8.0000000000E-03      0.0000000000E+00       gs_2                 
 ks015_02              1.8000000000E-02      0.0000000000E+00       gs_2                 
 ks004_02              2.6300000000E-02      0.0000000000E+00       gs_2                 
 ks044_02              3.6700000000E-02      0.0000000000E+00       gs_2                 
 mb016_02              4.8600000000E-02      0.0000000000E+00       gs_2                 
 mb008_02              9.2100000000E-02      0.0000000000E+00       gs_2                 
 mb009_02              1.1800000000E-01      0.0000000000E+00       gs_2                 
 ks042_02              1.4430000000E-01      0.0000000000E+00       gs_2                 
 ks012_02              1.5080000000E-01      0.0000000000E+00       gs_2                 
 ks020_02              1.6840000000E-01      0.0000000000E+00       gs_2                 
 mb040_02              2.3370000000E-01      0.0000000000E+00       gs_2                 
 ks035_02              2.4720000000E-01      0.0000000000E+00       gs_2                 
 ks030_02              2.8340000000E-01      0.0000000000E+00       gs_2                 
 ks028_02              3.1120000000E-01      0.0000000000E+00       gs_2                 
 mb022_02              4.6670000000E-01      0.0000000000E+00       gs_2                 
 mb023_02              4.9500000000E-01      0.0000000000E+00       gs_2                 
 ks033_02              5.2750000000E-01      0.0000000000E+00       gs_2                 
 ks019_02              5.5590000000E-01      0.0000000000E+00       gs_2                 
 ks045_02              5.5900000000E-01      0.0000000000E+00       gs_2                 
 ks046_02              7.3880000000E-01      0.0000000000E+00       gs_2                 
 ks049_02              7.4950000000E-01      0.0000000000E+00       gs_2                 
 mb007_02              8.2470000000E-01      0.0000000000E+00       gs_2                 
 ks051_02              9.2380000000E-01      0.0000000000E+00       gs_2                 
 ks021_02              9.5680000000E-01      0.0000000000E+00       gs_2                 
 mb024_02              9.6230000000E-01      0.0000000000E+00       gs_2                 
 ks011_02              1.0272000000E+00      0.0000000000E+00       gs_2                 
 ks017_02              1.0444000000E+00      0.0000000000E+00       gs_2                 
 ks018_02              1.0770000000E+00      0.0000000000E+00       gs_2                 
 ks041_02              1.0942000000E+00      0.0000000000E+00       gs_2                 
 ks034_02              1.1694000000E+00      0.0000000000E+00       gs_2                 
 ks039_02              1.2497000000E+00      0.0000000000E+00       gs_2                 
 mb027_02              1.2738000000E+00      0.0000000000E+00       gs_2                 
 ks016_02              1.3092000000E+00      0.0000000000E+00       gs_2                 
 mb006_02              1.4589000000E+00      0.0000000000E+00       gs_2                 
 mb001_02              1.5687000000E+00      0.0000000000E+00       gs_2                 
 ks022_02              1.6707000000E+00      0.0000000000E+00       gs_2                 
 ks026_02              1.6951000000E+00      0.0000000000E+00       gs_2                 
 ks058_02              1.7499000000E+00      0.0000000000E+00       gs_2                 
 ks024_02              1.7956000000E+00      0.0000000000E+00       gs_2                 
 ks023_02              2.1382000000E+00      0.0000000000E+00       gs_2                 
 mb039_02              2.1969000000E+00      0.0000000000E+00       gs_2                 
 ks037_02              2.3002000000E+00      0.0000000000E+00       gs_2                 
 ks040_02              2.3320000000E+00      0.0000000000E+00       gs_2                 
 ks025_02              2.3343000000E+00      0.0000000000E+00       gs_2                 
 mb106_02              2.7034000000E+00      0.0000000000E+00       gs_2                 
 mb004_02              2.7228000000E+00      0.0000000000E+00       gs_2                 
 ks003_02              2.7519000000E+00      0.0000000000E+00       gs_2                 
 mb121_02              2.7909000000E+00      0.0000000000E+00       gs_2                 
 ks001_02              3.2363000000E+00      0.0000000000E+00       gs_2                 
 mb122_02              3.8089000000E+00      0.0000000000E+00       gs_2                 
 ks027_02              3.8118000000E+00      0.0000000000E+00       gs_2                 
 ks002_02              4.1383000000E+00      0.0000000000E+00       gs_2                 
 ks036_02              4.2434000000E+00      0.0000000000E+00       gs_2                 
 mb116_02              4.6280000000E+00      0.0000000000E+00       gs_2                 
 ks062_02              8.9231000000E+00      0.0000000000E+00       gs_2                 
 mb040_03              1.4600000000E-02      0.0000000000E+00       gs_3                 
 mb007_03              2.0900000000E-02      0.0000000000E+00       gs_3                 
 mb022_03              2.3300000000E-02      0.0000000000E+00       gs_3                 
 mb009_03              2.3600000000E-02      0.0000000000E+00       gs_3                 
 mb016_03              2.4300000000E-02      0.0000000000E+00       gs_3                 
 mb008_03              3.0700000000E-02      0.0000000000E+00       gs_3                 
 mb006_03              7.6800000000E-02      0.0000000000E+00       gs_3                 
 ks033_03              9.2100000000E-02      0.0000000000E+00       gs_3                 
 ks015_03              1.1740000000E-01      0.0000000000E+00       gs_3                 
 mb116_03              1.2740000000E-01      0.0000000000E+00       gs_3                 
 mb039_03              1.3310000000E-01      0.0000000000E+00       gs_3                 
 ks035_03              1.3980000000E-01      0.0000000000E+00       gs_3                 
 mb023_03              1.6500000000E-01      0.0000000000E+00       gs_3                 
 mb121_03              1.8120000000E-01      0.0000000000E+00       gs_3                 
 ks034_03              1.9680000000E-01      0.0000000000E+00       gs_3                 
 mb027_03              2.1230000000E-01      0.0000000000E+00       gs_3                 
 mb001_03              2.2410000000E-01      0.0000000000E+00       gs_3                 
 ks001_03              2.5890000000E-01      0.0000000000E+00       gs_3                 
 ks004_03              2.9420000000E-01      0.0000000000E+00       gs_3                 
 ks028_03              3.0810000000E-01      0.0000000000E+00       gs_3                 
 ks024_03              3.4200000000E-01      0.0000000000E+00       gs_3                 
 ks026_03              3.5930000000E-01      0.0000000000E+00       gs_3                 
 mb122_03              3.6490000000E-01      0.0000000000E+00       gs_3                 
 ks025_03              3.7920000000E-01      0.0000000000E+00       gs_3                 
 ks058_03              3.8960000000E-01      0.0000000000E+00       gs_3                 
 ks014_03              4.2580000000E-01      0.0000000000E+00       gs_3                 
 ks002_03              4.2760000000E-01      0.0000000000E+00       gs_3                 
 ks022_03              4.9400000000E-01      0.0000000000E+00       gs_3                 
 ks027_03              5.5480000000E-01      0.0000000000E+00       gs_3                 
 mb106_03              5.8880000000E-01      0.0000000000E+00       gs_3                 
 ks012_03              5.8940000000E-01      0.0000000000E+00       gs_3                 
 ks023_03              5.9770000000E-01      0.0000000000E+00       gs_3                 
 ks017_03              7.4120000000E-01      0.0000000000E+00       gs_3                 
 ks051_03              7.5170000000E-01      0.0000000000E+00       gs_3                 
 ks039_03              8.5080000000E-01      0.0000000000E+00       gs_3                 
 ks003_03              8.9520000000E-01      0.0000000000E+00       gs_3                 
 mb004_03              9.6350000000E-01      0.0000000000E+00       gs_3                 
 ks016_03              1.0189000000E+00      0.0000000000E+00       gs_3                 
 ks020_03              1.0261000000E+00      0.0000000000E+00       gs_3                 
 ks019_03              1.0424000000E+00      0.0000000000E+00       gs_3                 
 ks011_03              1.0442000000E+00      0.0000000000E+00       gs_3                 
 ks018_03              1.0919000000E+00      0.0000000000E+00       gs_3                 
 ks044_03              1.1213000000E+00      0.0000000000E+00       gs_3                 
 mb024_03              1.1304000000E+00      0.0000000000E+00       gs_3                 
 ks021_03              1.1535000000E+00      0.0000000000E+00       gs_3                 
 ks042_03              1.3719000000E+00      0.0000000000E+00       gs_3                 